%chk=C:\Users\HungPham\Desktop\ME2N2.chk
# hf/3-21g

This structure was optimized at the level: #P b3lyp/6-31g(d,p) integral=(grid=ultrafine) scf=(intrep,xqc,maxconventionalcycles=350,tight) popt freq

0 1
 N              
 N                  1    B
 H                  1    1.03779002    2  106.09574802
 C                  2    1.47131830    1  112.47289606    3 -179.31529283    0
 H                  4    1.09801949    2  106.15734143    1 -122.55790532    0
 H                  4    1.09781007    2  110.58520018    1   -4.36990614    0
 C                  4    1.53353825    2  109.60214939    1  119.30412914    0
 H                  7    1.09705107    4  108.83947534    2   52.01973045    0
 H                  7    1.09771329    4  108.72547157    2  -63.63093571    0
 C                  7    1.53318286    4  112.67822422    2  174.40629935    0
 H                 10    1.09903952    7  109.50063868    4   57.06602183    0
 H                 10    1.09933034    7  109.34932238    4  -58.72425044    0
 C                 10    1.53373827    7  113.21197397    4  179.20816373    0
 H                 13    1.09830807   10  109.19323585    7   57.60334956    0
 H                 13    1.09827999   10  109.17898310    7  -57.89928912    0
 C                 13    1.53146113   10  113.15829710    7  179.87078292    0
 H                 16    1.09589044   13  111.21322949   10   59.84448523    0
 H                 16    1.09468584   13  111.41119944   10  179.95312434    0
 H                 16    1.09590569   13  111.22150906   10  -59.93746320    0
 
 B 1.24586622